Version 4.1
SHEET 1 2136 768
WIRE -176 -544 -208 -544
WIRE -80 -544 -128 -544
WIRE -176 -528 -176 -544
WIRE -128 -528 -128 -544
WIRE 960 -512 928 -512
WIRE 992 -512 992 -576
WIRE 1264 -496 1024 -496
WIRE 1440 -496 1264 -496
WIRE -192 -480 -288 -480
WIRE 32 -480 -112 -480
WIRE 128 -480 32 -480
WIRE 192 -480 128 -480
WIRE 352 -480 192 -480
WIRE 576 -480 352 -480
WIRE 800 -480 576 -480
WIRE 960 -480 800 -480
WIRE 128 -448 128 -480
WIRE 352 -448 352 -480
WIRE 576 -448 576 -480
WIRE 800 -448 800 -480
WIRE 992 -384 992 -480
WIRE 128 -352 128 -384
WIRE 352 -352 352 -384
WIRE 576 -352 576 -384
WIRE 800 -352 800 -384
WIRE 128 -336 128 -352
WIRE 352 -336 352 -352
WIRE 576 -336 576 -352
WIRE 800 -336 800 -352
WIRE 976 -176 944 -176
WIRE 1104 -176 1072 -176
WIRE 944 -144 944 -176
WIRE 1072 -144 1072 -176
WIRE 944 -48 944 -64
WIRE 1072 -48 1072 -64
WIRE 128 80 128 48
WIRE 352 80 352 48
WIRE 576 80 576 48
WIRE 128 96 128 80
WIRE 352 96 352 80
WIRE 576 96 576 80
WIRE 1440 176 1440 -496
WIRE 1440 176 720 176
FLAG 656 96 RST
FLAG 32 -208 RST
FLAG 256 -208 RST
FLAG 480 -208 RST
FLAG 1072 -48 0
FLAG 32 -16 Vin
FLAG 256 -16 Vin
FLAG 480 -16 Vin
FLAG 1104 -176 VDD/2
FLAG 32 -272 VDD/2
FLAG 256 -272 VDD/2
FLAG 480 -272 VDD/2
FLAG 576 256 D0
FLAG 128 256 D2
FLAG 944 -48 0
FLAG 976 -176 VDDi
FLAG -208 -544 RST
FLAG 576 -352 O0
FLAG 352 -352 O1
FLAG 128 -352 O2
FLAG 576 80 B0
FLAG 352 80 B1
FLAG 128 80 B2
FLAG 32 -480 Comp
FLAG -80 -544 VDD/2
FLAG 192 -480 Vx
FLAG 992 -576 VDDi
FLAG 32 -80 VrefM
FLAG 256 -80 VrefM
FLAG 480 -80 VrefM
FLAG 928 -512 Vcm
FLAG 704 -208 RST
FLAG 704 -16 Vin
FLAG 704 -272 VDD/2
FLAG 704 -80 VrefM
FLAG 800 48 0
FLAG 800 -352 Or
FLAG 704 -144 VrefP
FLAG 480 -144 VrefP
FLAG 256 -144 VrefP
FLAG 32 -144 VrefP
FLAG -1584 -224 0
FLAG -784 -256 0
FLAG -784 -80 0
FLAG -784 112 0
FLAG -1584 -304 Vin
FLAG -784 -336 VDD
FLAG -784 -160 VrefM
FLAG -784 32 VrefP
FLAG -784 336 0
FLAG -784 256 Vcm
FLAG 16 176 VDD
FLAG 992 -384 VrefM
FLAG -288 -480 Vcm
FLAG 1264 -496 Vcomp
FLAG 352 256 D1
FLAG 2064 -368 Vout
FLAG 1872 -400 D2
FLAG 1872 -368 D1
FLAG 1872 -336 D0
FLAG 1952 -208 VrefP
FLAG 1984 -208 VrefM
FLAG 1968 -528 VDD
FLAG -1584 -16 0
SYMBOL SuccessiveApproximationRegister -128 208 R0
SYMATTR InstName X1
SYMBOL SwitchModule 48 32 R0
SYMATTR InstName X3
SYMBOL SwitchModule 272 32 R0
SYMATTR InstName X4
SYMBOL SwitchModule 496 32 R0
SYMATTR InstName X5
SYMBOL voltage 1072 -160 R0
WINDOW 123 0 0 Left 0
WINDOW 39 0 0 Left 0
SYMATTR InstName VDD/2
SYMATTR Value .5
SYMBOL cap 784 -448 R0
SYMATTR InstName C1
SYMATTR Value {C}
SYMBOL cap 560 -448 R0
SYMATTR InstName C2
SYMATTR Value {C}
SYMBOL cap 336 -448 R0
SYMATTR InstName C3
SYMATTR Value {2*C}
SYMBOL cap 112 -448 R0
SYMATTR InstName C4
SYMATTR Value {4*C}
SYMBOL voltage 944 -160 R0
WINDOW 123 0 0 Left 0
WINDOW 39 0 0 Left 0
SYMATTR InstName VDDi
SYMATTR Value 1
SYMBOL sw -96 -480 R90
WINDOW 0 -18 -15 VRight 2
WINDOW 3 -21 109 VRight 2
SYMATTR InstName S1
SYMBOL SwitchModule 720 32 R0
SYMATTR InstName X6
SYMBOL voltage -1584 -320 R0
WINDOW 123 0 0 Left 0
WINDOW 39 0 0 Left 0
SYMATTR InstName Vin
SYMATTR Value SINE(0.5 0.5 1Meg 0 0 0)
SYMBOL voltage -784 -352 R0
SYMATTR InstName V2
SYMATTR Value 5
SYMBOL voltage -784 -176 R0
SYMATTR InstName V3
SYMATTR Value {VrefM}
SYMBOL voltage -784 16 R0
SYMATTR InstName V4
SYMATTR Value {VrefP}
SYMBOL voltage -784 240 R0
SYMATTR InstName V6
SYMATTR Value 2.5
SYMBOL MyComparator 992 -496 R0
SYMATTR InstName U1
SYMBOL Ideal_3_bit_DAC 1888 -224 R0
SYMATTR InstName X2
SYMBOL voltage -1584 -112 R0
SYMATTR InstName Vsawtooth
SYMATTR Value PULSE({VrefM} {VrefP} 0 {tr} 0 0 {tr})
TEXT 344 -512 Left 2 !.param C=1p
TEXT -1056 -568 Left 2 !.model SW SW
TEXT -1056 -688 Left 2 !.param VrefP=1\n.param VrefM=0\n.param tr=1.6u
TEXT -376 128 Left 2 !.tran 3.2u
